FoamFile
{
    version     2.0;
    format      ascii;
    class       dictionary;
    location    system;
    object      controlDict;
}
// * * * * * * * * * * * * * * * * * * * * * * * * * * * * * * * * * * * * * //

// Note: With OpenFOAM v1806 and OpenFOAM 6, the DyM solvers
// were marked deprecated and merged into their respective standard solvers.
application         pimpleFoam;    // OpenFOAM v1806, OpenFOAM 6, or newer
// application         pimpleDyMFoam; // OpenFOAM v1712, OpenFOAM 5.x, or older

startFrom           startTime;

startTime           0;

stopAt              endTime;

endTime             25;

deltaT              0.001;

writeControl        adjustableRunTime;

writeInterval       0.01;

purgeWrite          0;

writeFormat         ascii;

writePrecision      10;

writeCompression    off;

timeFormat          general;

timePrecision       12;

functions
{
    preCICE_Adapter
    {
        type preciceAdapterFunctionObject;
        libs ("libpreciceAdapterFunctionObject.so");
    }
//}

    forces_flap
    {
       type    forces;
       functionObjectLibs ("libforces.so");

       //patches ( cylinder );
       patches ( flap );
       pName p;
       UName U;

       log   true;
       CofR (0.2 0.2 0);
       rho   rhoInf;
       rhoInf 1;

       outputControl timeStep;
       outputInterval 1;

    } 

    forceCoefficients_flap
    {
       type    forceCoeffs;
       functionObjectLibs ("libforces.so");
       log yes;

       outputControl timeStep;
       outputInterval 10;

       //patches ( cylinder );
       patches ( flap );
       pName p;
       UName U;
       rho   rhoInf;
       rhoInf 1;
    //   origin (0 0 0);

     //  porosity   no;

       liftDir (0 -1 0);
       dragDir (1 0 0);
       CofR    (0.2 0.2 0);  // Centre of cylinder
       pitchAxis (0 0 1);

       magUInf 0.2;  // 2*U/3 , where U = 0.3 m/s (inflow velocity)
       rhoInf 1;
       lRef 0.1;  // Dia of cylinder 0.1m
       Aref 0.0001; // (Dia = 0.1) * (z-axis cylinder length = 0.01m)
    }

    forces_cylinder
    {
       type    forces;
       functionObjectLibs ("libforces.so");

       patches ( cylinder );
       //patches ( flap );
       pName p;
       UName U;

       log   true;
       CofR (0.2 0.2 0);
       rho   rhoInf;
       rhoInf 1;

       outputControl timeStep;
       outputInterval 10;

    } 

    forceCoefficients_cylinder
    {
       type    forceCoeffs;
       functionObjectLibs ("libforces.so");
       log yes;

       outputControl timeStep;
       outputInterval 1;

       patches ( cylinder );
       //patches ( flap );
       pName p;
       UName U;
       rho   rhoInf;
       rhoInf 1;
    //   origin (0 0 0);

     //  porosity   no;

       liftDir (0 -1 0);
       dragDir (1 0 0);
       CofR    (0.2 0.2 0);  // Centre of cylinder
       pitchAxis (0 0 1);

       magUInf 0.2;  // 2*U/3 , where U = 0.3 m/s (inflow velocity)
       rhoInf 1;
       lRef 0.1;  // Dia of cylinder 0.1m
       Aref 0.0001; // (Dia = 0.1) * (z-axis cylinder length = 0.01m)
    }
}
